Circuit: * Z:\home\ziad\AUC\Microelectronics\Project\odd_parity_checker_spice\3InputOddParityChecker.asc

Limiting rise time of source v2 to 0.005
Limiting fall time of source v2 to 0.005
Model "pmos0p18": Oxide thickness thinner than recommended for a level 1 MOSFET.
Instance "m2": Length shorter than recommended for a level 1 MOSFET.
Instance "m2": Width narrower than recommended for a level 1 MOSFET.
Model "nmos0p18": Oxide thickness thinner than recommended for a level 1 MOSFET.
Instance "m1": Length shorter than recommended for a level 1 MOSFET.
Instance "m1": Width narrower than recommended for a level 1 MOSFET.
Direct Newton iteration for .op point succeeded.

Date: Wed Dec 06 16:30:38 2023
Total elapsed time: 0.067 seconds.

tnom = 27
temp = 27
method = modified trap
totiter = 4483
traniter = 4476
tranpoints = 1665
accept = 1445
rejected = 220
matrix size = 6
fillins = 0
solver = Normal
Matrix Compiler1: 182 bytes object code size  1.2/1.2/[1.2]
Matrix Compiler2: off  [1.1]/1.3/1.3

